<routes>
	<vType id="agv" type="e-scooter" length="1.1" width="0.4" accel="10" decel="10" sigma="0"/>
  	<vType id="pedestrian" vClass="pedestrian"/>
    <route id="route_0" edges="-E491 -E490 -E489 -E488 -E487 -E486 -E485 -E484 -E483 E82 E83 E84 E85 E86 E611 E612 E613 E614 E298 E299 E280 E281 E282 E283 E579 E580 E581 E582 E101 E0 E1 E627 E628 -E118 -E117 -E116 -E115 -E114 -E113 -E112 -E111 -E110 E4 E105 E182 E131 E132 E133 E134 E135 E136 E137 E138 E619 E620 E368 E369 E370 E371 E372 E373 -E503 -E502 -E501"/>
    <route id="route_1" edges="-E491 -E490 -E489 -E488 -E487 -E486 -E485 -E484 -E483 -E624 -E623 E185 E186 E187 E188 E189 E190 E191 E192 E193 -E130 -E129 -E171 -E170 -E169 -E168 -E167 -E166 -E165 -E164 -E163 E635 E636 -E56 -E55 -E54 -E53 -E52 E599 E600 E601 E602 -E243 -E242 -E241 -E240 -E259 -E258 -E606 -E605 -E604 -E603 -E37 -E36 -E35 -E34 -E33 E382 E383 E384 E385 E386 E387 E506 E507 E508"/>
    <route id="route_2" edges="-E491 -E490 -E489 -E488 -E487 -E486 -E485 -E484 -E483 -E624 -E623 E185 E186 E187 E188 E189 E190 E191 E192 E193 E4 E105 E182 E131 E132 -E205 -E204 E7 E8 E23 E24 E25 E615 E616 E617 E618 E227 E228 E229 E230 -E367 -E366 -E365 -E364 -E363 -E362 -E380 -E379 -E378 -E377 -E376 -E375 -E374 -E503 -E502 -E501"/>
    
    <route id="route_3" edges="-E500 -E499 -E498 -E497 -E496 -E495 -E494 -E493 -E492 -E79 -E78 -E77 -E76 -E74 E607 E608 E609 E610 -E261 -E260 -E279 -E278 -E277 -E276 E591 E592 E593 E594 -E59 -E58 -E57 -E56 -E55 -E634 -E633 -E158 -E157 -E156 -E155 -E154 -E153 -E152 -E151 -E150 -E149 -E148 -E147 -E146 -E145 -E144 -E143 -E142 -E141 E621 E622 E382 E383 E384 E385 E386 E387 E506 E507 E508"/>
    <route id="route_4" edges="-E500 -E499 -E498 -E497 -E496 -E495 -E494 -E493 -E492 E625 E626 -E180 -E179 -E178 -E177 -E176 -E175 -E174 -E173 -E172 -E109 -E108 -E107 -E106 -E181 -E128 -E127 -E126 -E125 -E124 -E123 -E122 -E121 -E120 -E119 -E118 -E117 -E116 -E115 -E114 -E113 -E112 -E111 -E110 E4 E105 E182 E131 E132 E133 E134 E135 E136 E137 E138 E619 E620 E368 E369 E370 E371 E372 E373 -E503 -E502 -E501"/>
    <route id="route_5" edges="-E500 -E499 -E498 -E497 -E496 -E495 -E494 -E493 -E492 E625 E626 -E180 -E179 -E178 -E177 -E176 -E175 -E174 -E173 -E172 E129 E130 E110 E111 E112 E113 E114 E115 E116 E117 E118 -E628 -E627 E2 E3 E9 E10 E11 E575 E576 E577 E578 -E220 -E239 -E238 -E237 -E236 -E235 -E234 -E233 -E232 -E231 -E367 -E366 -E365 -E364 -E363 -E362 -E380 -E379 -E378 -E377 -E376 -E375 -E374 E504 E505 E506 E507 E508"/>
    
    <route id="route_6" edges="E501 E502 E503 -E373 -E372 -E371 -E370 -E369 -E368 -E620 -E619 -E138 -E137 -E136 -E135 -E134 -E133 -E132 -E131 -E182 -E105 -E4 E110 E111 E112 E113 E114 E115 E116 E117 E118 -E628 -E627 E300 E301 E302 E303 E304 E305 E306 E307 E308 E311 E312 E313 E316 E317 E318 E319 E320 -E482 -E481 -E480 -E479 -E478 -E477 -E476 -E475 -E474 -E473 -E472 -E471 -E470 -E469 -E468 E489 E490 E491"/>
    <route id="route_7" edges="E501 E502 E503 -E373 -E372 -E371 -E370 -E369 -E368 E31 E32 E33 E34 E35 E36 E37 E38 E39 E40 E41 E42 E43 E44 E45 E46 E47 E48 E49 E50 E51 E52 E53 E54 E55 E56 -E636 -E635 E163 E164 E165 E166 E167 E168 E169 E170 E171 E172 E173 E174 E175 E176 E177 E178 E179 E180 -E626 -E625 E492 E493 E494 E495 E496 E497 E498 E499 E500"/>
    <route id="route_8" edges="E501 E502 E503 -E373 -E372 -E371 -E370 -E369 -E368 -E620 -E619 -E138 -E137 -E136 -E135 -E134 -E133 -E132 -E131 -E182 -E105 -E4 -E193 -E192 -E191 E194 E195 -E6 -E5 E90 E91 E92 E93 E94 E95 E96 E97 -E586 -E585 -E584 -E583 -E280 -E299 -E298 -E614 -E613 -E612 -E611 -E86 -E85 -E84 -E83 -E82 E483 E484 E485 E486 E487 E488 E489 E490 E491"/>
    
    <route id="route_9" edges="-E508 -E507 -E506 -E387 -E386 -E385 -E384 -E383 -E382 -E622 -E621 -E140 -E139 -E138 -E137 -E136 -E135 -E134 -E133 -E205 -E204 -E203 -E202 -E201 -E200 E127 E128 E181 -E105 -E4 -E193 -E192 -E191 -E190 -E189 -E188 -E187 -E186 -E185 E623 E624 E483 E484 E485 E486 E487 E488 E489 E490 E491"/>
    <route id="route_10" edges="-E508 -E507 -E506 E388 E389 E390 E391 E392 E393 E394 -E409 -E408 -E407 -E421 -E420 -E419 -E418 -E417 -E416 -E415 -E414 -E413 -E412 -E514 -E513 -E512 E424 E425 E426 E427 E428 E429 E430 -E638 -E637 E435 E436 E437 E438 E439 E440 E441 -E511 -E510 -E509 E446 E447 E448 E449 E450 E451 E452 E453 E454 E455 E456 E457 E458 E459 E460 E461 E462 E463 E464 E465 E498 E499 E500"/>
    <route id="route_11" edges="-E508 -E507 -E506 -E505 -E504 E374 E375 E376 E377 E378 E379 E380 -E361 -E360 -E359 -E346 -E345 -E344 -E343 -E342 -E341 -E340 -E339 -E338 -E337 -E334 -E333 -E332 -E329 -E328 -E327 -E326 -E325 -E324 -E323 -E640 -E639 -E301 -E300 E627 E628 -E118 -E117 -E116 -E115 -E114 -E113 -E112 -E111 -E110 -E130 -E129 E172 E173 E174 E175 E176 E177 E178 E179 E180 -E626 -E625 E492 E493 E494 E495 E496 E497 E498 E499 E500"/>
    
    <flow id="flow0" type="agv" route="route_0" begin="0" period="30" minGap="1.10" maxSpeed="4.00" number="4"/>
    <flow id="flow1" type="agv" route="route_1" begin="0" period="60" minGap="1.10" maxSpeed="4.00" number="4"/>
    <flow id="flow2" type="agv" route="route_2" begin="0" period="30" minGap="1.10" maxSpeed="4.00" number="4"/>
    <flow id="flow3" type="agv" route="route_3" begin="0" period="60" minGap="1.10" maxSpeed="4.00" number="4"/>
    <flow id="flow4" type="agv" route="route_4" begin="0" period="30" minGap="1.10" maxSpeed="4.00" number="4"/>
    <flow id="flow5" type="agv" route="route_5" begin="0" period="60" minGap="1.10" maxSpeed="4.00" number="4"/>
    <flow id="flow6" type="agv" route="route_6" begin="0" period="30" minGap="1.10" maxSpeed="4.00" number="4"/>
    <flow id="flow7" type="agv" route="route_7" begin="0" period="60" minGap="1.10" maxSpeed="4.00" number="4"/>
    <flow id="flow8" type="agv" route="route_8" begin="0" period="30" minGap="1.10" maxSpeed="4.00" number="4"/>
    <flow id="flow9" type="agv" route="route_9" begin="0" period="60" minGap="1.10" maxSpeed="4.00" number="4"/>
    <flow id="flow10" type="agv" route="route_10" begin="0" period="30" minGap="1.10" maxSpeed="4.00" number="4"/>
    <flow id="flow11" type="agv" route="route_11" begin="0" period="60" minGap="1.10" maxSpeed="4.00" number="4"/>
    
    <personFlow type="pedestrian" begin="0" end="720" id="p10a" impatience="0.04" period="4">
    <walk from="E10" to="-E10"/>
  </personFlow>
  <personFlow begin="0" id="p10b" impatience="0.96" end="512" period="4">
    <walk from="-E10" to="E10"/>
  </personFlow>
  <personFlow begin="0" id="p101a" impatience="0.38" end="399" period="6">
    <walk from="E101" to="-E101"/>
  </personFlow>
  <personFlow begin="0" id="p101b" impatience="0.62" end="512" period="4">
    <walk from="-E101" to="E101"/>
  </personFlow>
    <personFlow begin="0" id="p101x" impatience="0.38" end="399" period="6">
    <walk from="E101" to="-E101"/>
  </personFlow>
  <personFlow begin="0" id="p101y" impatience="0.62" end="512" period="4">
    <walk from="-E101" to="E101"/>
  </personFlow>
  <personFlow begin="0" id="p102a" impatience="0.38" end="512" period="4">
    <walk from="E102" to="-E102"/>
  </personFlow>
  <personFlow begin="0" id="p102b" impatience="0.62" end="512" period="4">
    <walk from="-E102" to="E102"/>
  </personFlow>
  <personFlow begin="0" id="p103a" impatience="0.39" end="512" period="4">
    <walk from="E103" to="-E103"/>
  </personFlow>
  <personFlow begin="0" id="p103b" impatience="0.61" end="512" period="4">
    <walk from="-E103" to="E103"/>
  </personFlow>
  <personFlow begin="0" id="p104a" impatience="0.39" end="512" period="4">
    <walk from="E104" to="-E104"/>
  </personFlow>
  <personFlow begin="0" id="p104b" impatience="0.61" end="512" period="4">
    <walk from="-E104" to="E104"/>
  </personFlow>
  <personFlow begin="0" id="p105a" impatience="0.39" end="512" period="4">
    <walk from="E105" to="-E105"/>
  </personFlow>
  <personFlow begin="0" id="p105b" impatience="0.61" end="512" period="4">
    <walk from="-E105" to="E105"/>
  </personFlow>
  <personFlow begin="0" id="p106a" impatience="0.40" end="512" period="4">
    <walk from="E106" to="-E106"/>
  </personFlow>
  <personFlow begin="0" id="p106b" impatience="0.60" end="512" period="4">
    <walk from="-E106" to="E106"/>
  </personFlow>
  <personFlow begin="0" id="p109a" impatience="0.41" end="512" period="4">
    <walk from="E109" to="-E109"/>
  </personFlow>
  <personFlow begin="0" id="p109b" impatience="0.59" end="512" period="4">
    <walk from="-E109" to="E109"/>
  </personFlow>
  <personFlow begin="0" id="p11a" impatience="0.04" end="512" period="4">
    <walk from="E11" to="-E11"/>
  </personFlow>
  <personFlow begin="0" id="p11b" impatience="0.96" end="512" period="4">
    <walk from="-E11" to="E11"/>
  </personFlow>
  <personFlow begin="0" id="p115a" impatience="0.43" end="512" period="4">
    <walk from="E115" to="-E115"/>
  </personFlow>
  <personFlow begin="0" id="p115b" impatience="0.57" end="512" period="4">
    <walk from="-E115" to="E115"/>
  </personFlow>
  <personFlow begin="0" id="p116a" impatience="0.44" end="512" period="4">
    <walk from="E116" to="-E116"/>
  </personFlow>
  <personFlow begin="0" id="p116b" impatience="0.56" end="512" period="4">
    <walk from="-E116" to="E116"/>
  </personFlow>
  <personFlow begin="0" id="p117a" impatience="0.44" end="512" period="4">
    <walk from="E117" to="-E117"/>
  </personFlow>
  <personFlow begin="0" id="p117b" impatience="0.56" end="1501" period="10">
    <walk from="-E117" to="E117"/>
  </personFlow>
  <personFlow begin="0" id="p12a" impatience="0.05" end="512" period="4">
    <walk from="E12" to="-E12"/>
  </personFlow>
  <personFlow begin="0" id="p12b" impatience="0.95" end="512" period="4">
    <walk from="-E12" to="E12"/>
  </personFlow>
  <personFlow begin="0" id="p121a" impatience="0.45" end="512" period="4">
    <walk from="E121" to="-E121"/>
  </personFlow>
  <personFlow begin="0" id="p121b" impatience="0.55" end="512" period="4">
    <walk from="-E121" to="E121"/>
  </personFlow>
  <personFlow begin="0" id="p124a" impatience="0.47" end="1501" period="10">
    <walk from="E124" to="-E124"/>
  </personFlow>
  <personFlow begin="0" id="p124b" impatience="0.53" end="512" period="4">
    <walk from="-E124" to="E124"/>
  </personFlow>
  
  <personFlow begin="0" id="p93a" impatience="0.45" end="512" period="4">
    <walk from="E93" to="-E93"/>
  </personFlow>
  <personFlow begin="0" id="p93b" impatience="0.25" end="512" period="4">
    <walk from="-E93" to="E93"/>
  </personFlow>
  <personFlow begin="0" id="p94a" impatience="0.35" end="512" period="4">
    <walk from="E94" to="-E94"/>
  </personFlow>
  <personFlow begin="0" id="p94b" impatience="0.65" end="512" period="4">
    <walk from="-E94" to="E94"/>
  </personFlow>
  <personFlow begin="0" id="p95a" impatience="0.55" end="512" period="4">
    <walk from="E95" to="-E95"/>
  </personFlow>
  <personFlow begin="0" id="p95b" impatience="0.35" end="512" period="4">
    <walk from="-E95" to="E95"/>
  </personFlow>
  <personFlow begin="0" id="p96a" impatience="0.46" end="512" period="4">
    <walk from="E96" to="-E96"/>
  </personFlow>
  <personFlow begin="0" id="p96b" impatience="0.64" end="512" period="4">
    <walk from="-E96" to="E96"/>
  </personFlow>
  <personFlow begin="0" id="p97a" impatience="0.56" end="482" period="5">
    <walk from="E97" to="-E97"/>
  </personFlow>
  <personFlow begin="0" id="p97b" impatience="0.64" end="512" period="4">
    <walk from="-E97" to="E97"/>
  </personFlow>
  <personFlow begin="0" id="p98a" impatience="0.37" end="512" period="4">
    <walk from="E98" to="-E98"/>
  </personFlow>
  <personFlow begin="0" id="p98b" impatience="0.63" end="512" period="4">
    <walk from="-E98" to="E98"/>
  </personFlow>
  <personFlow begin="0" id="p99a" impatience="0.75" end="512" period="4">
    <walk from="E99" to="-E99"/>
  </personFlow>
  <personFlow begin="0" id="p99b" impatience="0.45" end="512" period="4">
    <walk from="-E99" to="E99"/>
  </personFlow>
  <personFlow begin="0" id="p100a" impatience="0.51" end="482" period="5">
    <walk from="E100" to="-E100"/>
  </personFlow>
  <personFlow begin="0" id="p100b" impatience="0.51" end="512" period="4">
    <walk from="-E100" to="E100"/>
  </personFlow>
    <personFlow begin="0" id="p100c" impatience="0.51" end="482" period="5">
    <walk from="E100" to="-E100"/>
  </personFlow>
  <personFlow begin="0" id="p100d" impatience="0.51" end="512" period="4">
    <walk from="-E100" to="E100"/>
  </personFlow>
  
  <personFlow begin="0" id="p107a" impatience="0.68" end="512" period="4">
    <walk from="E107" to="-E107"/>
  </personFlow>
  <personFlow begin="0" id="p107b" impatience="0.51" end="512" period="4">
    <walk from="-E107" to="E107"/>
  </personFlow>
  <personFlow begin="0" id="p108a" impatience="0.69" end="512" period="4">
    <walk from="E108" to="-E108"/>
  </personFlow>
  <personFlow begin="0" id="p108b" impatience="0.61" end="512" period="4">
    <walk from="-E108" to="E108"/>
  </personFlow>
    <personFlow begin="0" id="p213a" impatience="0.55" end="512" period="4">
    <walk from="E213" to="-E213"/>
  </personFlow>
  <personFlow begin="0" id="p213b" impatience="0.51" end="512" period="4">
    <walk from="-E213" to="E213"/>
  </personFlow>
  <personFlow begin="0" id="p215a" impatience="0.215" end="512" period="4">
    <walk from="E215" to="-E215"/>
  </personFlow>
  <personFlow begin="0" id="p215b" impatience="0.51" end="512" period="4">
    <walk from="-E215" to="E215"/>
  </personFlow>
  <personFlow begin="0" id="p111a" impatience="0.111" end="512" period="4">
    <walk from="E111" to="-E111"/>
  </personFlow>
  <personFlow begin="0" id="p111b" impatience="0.21" end="512" period="4">
    <walk from="-E111" to="E111"/>
  </personFlow>
  <personFlow begin="0" id="p126a" impatience="0.2676201" end="512" period="4">
    <walk from="E126" to="-E126"/>
  </personFlow>
  <personFlow begin="0" id="p126b" impatience="0.2800333" end="512" period="4">
    <walk from="-E126" to="E126"/>
  </personFlow>
  <personFlow begin="0" id="p127a" impatience="0.3672682" end="482" period="5">
    <walk from="E127" to="-E127"/>
  </personFlow>
  <personFlow begin="0" id="p127b" impatience="0.15071005" end="512" period="4">
    <walk from="-E127" to="E127"/>
  </personFlow>
  <personFlow begin="0" id="p128a" impatience="0.08357662" end="512" period="4">
    <walk from="E128" to="-E128"/>
  </personFlow>
  <personFlow begin="0" id="p128b" impatience="0.86806405" end="512" period="4">
    <walk from="-E128" to="E128"/>
  </personFlow>
  <personFlow begin="0" id="p129a" impatience="0.5717917" end="512" period="4">
    <walk from="E129" to="-E129"/>
  </personFlow>
  <personFlow begin="0" id="p129b" impatience="0.5953563" end="512" period="4">
    <walk from="-E129" to="E129"/>
  </personFlow>
  <personFlow begin="0" id="p132a" impatience="0.52298635" end="512" period="4">
    <walk from="E132" to="-E132"/>
  </personFlow>
  <personFlow begin="0" id="p132b" impatience="0.82995474" end="512" period="4">
    <walk from="-E132" to="E132"/>
  </personFlow>
  <personFlow begin="0" id="p133a" impatience="0.90086186" end="512" period="4">
    <walk from="E133" to="-E133"/>
  </personFlow>
  <personFlow begin="0" id="p133b" impatience="0.8400422" end="512" period="4">
    <walk from="-E133" to="E133"/>
  </personFlow>
  <personFlow begin="0" id="p134a" impatience="0.18680048" end="512" period="4">
    <walk from="E134" to="-E134"/>
  </personFlow>
  <personFlow begin="0" id="p134b" impatience="0.8864333" end="399" period="6">
    <walk from="-E134" to="E134"/>
  </personFlow>
  <personFlow begin="0" id="p137a" impatience="0.8505442" end="512" period="4">
    <walk from="E137" to="-E137"/>
  </personFlow>
  <personFlow begin="0" id="p137b" impatience="0.4452454" end="512" period="4">
    <walk from="-E137" to="E137"/>
  </personFlow>
  <personFlow begin="0" id="p138a" impatience="0.6684153" end="512" period="4">
    <walk from="E138" to="-E138"/>
  </personFlow>
  <personFlow begin="0" id="p138b" impatience="0.49837983" end="512" period="4">
    <walk from="-E138" to="E138"/>
  </personFlow>
      <personFlow begin="0" id="p139a" impatience="0.9278469" end="482" period="5">
        <walk from="E139" to="-E139"/>
    </personFlow>
    <personFlow begin="0" id="p139b" impatience="0.043536246" end="512" period="4">
        <walk from="-E139" to="E139"/>
    </personFlow>
    <personFlow begin="0" id="p140a" impatience="0.5586585" end="512" period="4">
        <walk from="E140" to="-E140"/>
    </personFlow>
    <personFlow begin="0" id="p140b" impatience="0.6287122" end="512" period="4">
        <walk from="-E140" to="E140"/>
    </personFlow>

    <personFlow begin="0" id="p145a" impatience="0.29869026" end="512" period="4">
        <walk from="E145" to="-E145"/>
    </personFlow>
    <personFlow begin="0" id="p145b" impatience="0.97447723" end="482" period="5">
        <walk from="-E145" to="E145"/>
    </personFlow>
    <personFlow begin="0" id="p146a" impatience="0.8802173" end="512" period="4">
        <walk from="E146" to="-E146"/>
    </personFlow>
    <personFlow begin="0" id="p146b" impatience="0.36000878" end="512" period="4">
        <walk from="-E146" to="E146"/>
    </personFlow>
    <personFlow begin="0" id="p147a" impatience="0.41322577" end="482" period="5">
        <walk from="E147" to="-E147"/>
    </personFlow>
    <personFlow begin="0" id="p147b" impatience="0.41260558" end="512" period="4">
        <walk from="-E147" to="E147"/>
    </personFlow>
    <personFlow begin="0" id="p148a" impatience="0.271855" end="512" period="4">
        <walk from="E148" to="-E148"/>
    </personFlow>
    <personFlow begin="0" id="p148b" impatience="0.8572092" end="512" period="4">
        <walk from="-E148" to="E148"/>
    </personFlow>
    <personFlow begin="0" id="p149a" impatience="0.5599121" end="482" period="5">
        <walk from="E149" to="-E149"/>
    </personFlow>
    <personFlow begin="0" id="p149b" impatience="0.08722746" end="512" period="4">
        <walk from="-E149" to="E149"/>
    </personFlow>
    <personFlow begin="0" id="p150a" impatience="0.6882501" end="512" period="4">
        <walk from="E150" to="-E150"/>
    </personFlow>
    <personFlow begin="0" id="p150b" impatience="0.94567573" end="512" period="4">
        <walk from="-E150" to="E150"/>
    </personFlow>
    <personFlow begin="0" id="p168a" impatience="0.18589187" end="482" period="5">
        <walk from="E168" to="-E168"/>
    </personFlow>
    <personFlow begin="0" id="p168b" impatience="0.0038580298" end="512" period="4">
        <walk from="-E168" to="E168"/>
    </personFlow>
    <personFlow begin="0" id="p169a" impatience="0.90212685" end="512" period="4">
        <walk from="E169" to="-E169"/>
    </personFlow>
    <personFlow begin="0" id="p169b" impatience="0.23771632" end="512" period="4">
        <walk from="-E169" to="E169"/>
    </personFlow>
    <personFlow begin="0" id="p173a" impatience="0.8433328" end="512" period="4">
        <walk from="E173" to="-E173"/>
    </personFlow>
    <personFlow begin="0" id="p173b" impatience="0.47000146" end="482" period="5">
        <walk from="-E173" to="E173"/>
    </personFlow>
    <personFlow begin="0" id="p174a" impatience="0.89116424" end="512" period="4">
        <walk from="E174" to="-E174"/>
    </personFlow>
    <personFlow begin="0" id="p174b" impatience="0.34796953" end="512" period="4">
        <walk from="-E174" to="E174"/>
    </personFlow>
    <personFlow begin="0" id="p175a" impatience="0.5433333" end="512" period="4">
        <walk from="E175" to="-E175"/>
    </personFlow>
    <personFlow begin="0" id="p175b" impatience="0.72903544" end="512" period="4">
        <walk from="-E175" to="E175"/>
    </personFlow>
    <personFlow begin="0" id="p177a" impatience="0.028154075" end="482" period="5">
        <walk from="E177" to="-E177"/>
    </personFlow>
    <personFlow begin="0" id="p177b" impatience="0.0096206665" end="482" period="5">
        <walk from="-E177" to="E177"/>
    </personFlow>
    <personFlow begin="0" id="p21a" impatience="0.39456546" end="512" period="4">
        <walk from="E21" to="-E21"/>
    </personFlow>
    <personFlow begin="0" id="p21b" impatience="0.5001689" end="512" period="4">
        <walk from="-E21" to="E21"/>
    </personFlow>
<personFlow begin="0" id="p194a" impatience="0.98363465" end="512" period="4">
        <walk from="E194" to="-E194"/>
    </personFlow>
    <personFlow begin="0" id="p194b" impatience="0.46342367" end="512" period="4">
        <walk from="-E194" to="E194"/>
    </personFlow>
    <personFlow begin="0" id="p195a" impatience="0.6196497" end="512" period="4">
        <walk from="E195" to="-E195"/>
    </personFlow>
    <personFlow begin="0" id="p195b" impatience="0.29863697" end="512" period="4">
        <walk from="-E195" to="E195"/>
    </personFlow>
    <personFlow begin="0" id="p197a" impatience="0.84478" end="512" period="4">
        <walk from="E197" to="-E197"/>
    </personFlow>
    <personFlow begin="0" id="p197b" impatience="0.76941454" end="482" period="5">
        <walk from="-E197" to="E197"/>
    </personFlow>
  
</routes>